<?xml version="1.0" encoding="UTF-8"?>

<!-- generated on 2025-10-20 02:00:26 by Eclipse SUMO netconvert Version 1.24.0
<netconvertConfiguration xmlns:xsi="http://www.w3.org/2001/XMLSchema-instance" xsi:noNamespaceSchemaLocation="http://sumo.dlr.de/xsd/netconvertConfiguration.xsd">

    <input>
        <node-files value="/scenarios/simple_grid/network.nod.xml"/>
        <edge-files value="/scenarios/simple_grid/network.edg.xml"/>
    </input>

    <output>
        <output-file value="/scenarios/simple_grid/network.net.xml"/>
    </output>

</netconvertConfiguration>
-->

<net version="1.20" junctionCornerDetail="5" limitTurnSpeed="5.50" xmlns:xsi="http://www.w3.org/2001/XMLSchema-instance" xsi:noNamespaceSchemaLocation="http://sumo.dlr.de/xsd/net_file.xsd">

    <location netOffset="0.00,0.00" convBoundary="0.00,0.00,400.00,400.00" origBoundary="0.00,0.00,400.00,400.00" projParameter="!"/>

    <edge id=":n1_0" function="internal">
        <lane id=":n1_0_0" index="0" speed="13.89" length="11.20" shape="196.00,-1.60 207.20,-1.60"/>
    </edge>
    <edge id=":n1_1" function="internal">
        <lane id=":n1_1_0" index="0" speed="6.51" length="9.03" shape="196.00,-1.60 198.45,-1.25 200.20,-0.20 201.25,1.55 201.60,4.00"/>
    </edge>
    <edge id=":n2_0" function="internal">
        <lane id=":n2_0_0" index="0" speed="3.90" length="2.58" shape="400.00,-1.60 400.70,-1.50 401.20,-1.20 401.50,-0.70 401.60,0.00"/>
    </edge>
    <edge id=":n3_0" function="internal">
        <lane id=":n3_0_0" index="0" speed="6.51" length="9.03" shape="1.60,192.80 1.95,195.25 3.00,197.00 4.75,198.05 7.20,198.40"/>
    </edge>
    <edge id=":n3_1" function="internal">
        <lane id=":n3_1_0" index="0" speed="13.89" length="11.20" shape="1.60,192.80 1.60,204.00"/>
    </edge>
    <edge id=":n4_0" function="internal">
        <lane id=":n4_0_0" index="0" speed="6.51" length="9.03" shape="201.60,192.80 201.95,195.25 203.00,197.00 204.75,198.05 207.20,198.40"/>
    </edge>
    <edge id=":n4_1" function="internal">
        <lane id=":n4_1_0" index="0" speed="13.89" length="11.20" shape="201.60,192.80 201.60,204.00"/>
    </edge>
    <edge id=":n4_2" function="internal">
        <lane id=":n4_2_0" index="0" speed="13.89" length="11.20" shape="196.00,198.40 207.20,198.40"/>
    </edge>
    <edge id=":n4_3" function="internal">
        <lane id=":n4_3_0" index="0" speed="6.51" length="9.03" shape="196.00,198.40 198.45,198.75 200.20,199.80 201.25,201.55 201.60,204.00"/>
    </edge>
    <edge id=":n5_0" function="internal">
        <lane id=":n5_0_0" index="0" speed="13.89" length="11.20" shape="401.60,192.80 401.60,204.00"/>
    </edge>
    <edge id=":n5_1" function="internal">
        <lane id=":n5_1_0" index="0" speed="6.51" length="9.03" shape="396.00,198.40 398.45,198.75 400.20,199.80 401.25,201.55 401.60,204.00"/>
    </edge>
    <edge id=":n6_0" function="internal">
        <lane id=":n6_0_0" index="0" speed="3.90" length="2.58" shape="1.60,396.80 1.70,397.50 2.00,398.00 2.50,398.30 3.20,398.40"/>
    </edge>
    <edge id=":n7_0" function="internal">
        <lane id=":n7_0_0" index="0" speed="6.51" length="9.03" shape="201.60,392.80 201.95,395.25 203.00,397.00 204.75,398.05 207.20,398.40"/>
    </edge>
    <edge id=":n7_1" function="internal">
        <lane id=":n7_1_0" index="0" speed="13.89" length="11.20" shape="196.00,398.40 207.20,398.40"/>
    </edge>

    <edge id="h0_0" from="n0" to="n1" priority="-1">
        <lane id="h0_0_0" index="0" speed="13.89" length="191.30" shape="4.70,-1.60 196.00,-1.60"/>
    </edge>
    <edge id="h0_1" from="n1" to="n2" priority="-1">
        <lane id="h0_1_0" index="0" speed="13.89" length="192.80" shape="207.20,-1.60 400.00,-1.60"/>
    </edge>
    <edge id="h1_0" from="n3" to="n4" priority="-1">
        <lane id="h1_0_0" index="0" speed="13.89" length="188.80" shape="7.20,198.40 196.00,198.40"/>
    </edge>
    <edge id="h1_1" from="n4" to="n5" priority="-1">
        <lane id="h1_1_0" index="0" speed="13.89" length="188.80" shape="207.20,198.40 396.00,198.40"/>
    </edge>
    <edge id="h2_0" from="n6" to="n7" priority="-1">
        <lane id="h2_0_0" index="0" speed="13.89" length="192.80" shape="3.20,398.40 196.00,398.40"/>
    </edge>
    <edge id="h2_1" from="n7" to="n8" priority="-1">
        <lane id="h2_1_0" index="0" speed="13.89" length="191.30" shape="207.20,398.40 398.50,398.40"/>
    </edge>
    <edge id="v0_0" from="n0" to="n3" priority="-1">
        <lane id="v0_0_0" index="0" speed="13.89" length="191.30" shape="1.60,1.50 1.60,192.80"/>
    </edge>
    <edge id="v0_1" from="n3" to="n6" priority="-1">
        <lane id="v0_1_0" index="0" speed="13.89" length="192.80" shape="1.60,204.00 1.60,396.80"/>
    </edge>
    <edge id="v1_0" from="n1" to="n4" priority="-1">
        <lane id="v1_0_0" index="0" speed="13.89" length="188.80" shape="201.60,4.00 201.60,192.80"/>
    </edge>
    <edge id="v1_1" from="n4" to="n7" priority="-1">
        <lane id="v1_1_0" index="0" speed="13.89" length="188.80" shape="201.60,204.00 201.60,392.80"/>
    </edge>
    <edge id="v2_0" from="n2" to="n5" priority="-1">
        <lane id="v2_0_0" index="0" speed="13.89" length="192.80" shape="401.60,0.00 401.60,192.80"/>
    </edge>
    <edge id="v2_1" from="n5" to="n8" priority="-1">
        <lane id="v2_1_0" index="0" speed="13.89" length="191.30" shape="401.60,204.00 401.60,395.30"/>
    </edge>

    <tlLogic id="n1" type="static" programID="0" offset="0">
        <phase duration="82" state="GG"/>
        <phase duration="3"  state="yy"/>
        <phase duration="5"  state="rr"/>
    </tlLogic>
    <tlLogic id="n2" type="static" programID="0" offset="0">
        <phase duration="82" state="G"/>
        <phase duration="3"  state="y"/>
        <phase duration="5"  state="r"/>
    </tlLogic>
    <tlLogic id="n3" type="static" programID="0" offset="0">
        <phase duration="82" state="GG"/>
        <phase duration="3"  state="yy"/>
        <phase duration="5"  state="rr"/>
    </tlLogic>
    <tlLogic id="n4" type="static" programID="0" offset="0">
        <phase duration="42" state="GGrr"/>
        <phase duration="3"  state="yyrr"/>
        <phase duration="42" state="rrGG"/>
        <phase duration="3"  state="rryy"/>
    </tlLogic>
    <tlLogic id="n5" type="static" programID="0" offset="0">
        <phase duration="42" state="Gr"/>
        <phase duration="3"  state="yr"/>
        <phase duration="42" state="rG"/>
        <phase duration="3"  state="ry"/>
    </tlLogic>
    <tlLogic id="n6" type="static" programID="0" offset="0">
        <phase duration="82" state="G"/>
        <phase duration="3"  state="y"/>
        <phase duration="5"  state="r"/>
    </tlLogic>
    <tlLogic id="n7" type="static" programID="0" offset="0">
        <phase duration="42" state="Gr"/>
        <phase duration="3"  state="yr"/>
        <phase duration="42" state="rG"/>
        <phase duration="3"  state="ry"/>
    </tlLogic>

    <junction id="n0" type="dead_end" x="0.00" y="0.00" incLanes="" intLanes="" shape="0.00,1.50 3.20,1.50 3.37,0.67 3.57,0.38 3.87,0.17 4.24,0.04 4.70,0.00 4.70,-3.20 2.09,-2.68 1.18,-2.03 0.52,-1.11 0.13,0.06"/>
    <junction id="n1" type="traffic_light" x="200.00" y="0.00" incLanes="h0_0_0" intLanes=":n1_0_0 :n1_1_0" shape="200.00,4.00 203.20,4.00 203.64,1.78 204.20,1.00 204.98,0.44 205.98,0.11 207.20,0.00 207.20,-3.20 196.00,-3.20 196.00,0.00 198.22,0.44 199.00,1.00 199.56,1.78 199.89,2.78">
        <request index="0" response="00" foes="00" cont="0"/>
        <request index="1" response="00" foes="00" cont="0"/>
    </junction>
    <junction id="n2" type="traffic_light" x="400.00" y="0.00" incLanes="h0_1_0" intLanes=":n2_0_0" shape="400.00,0.00 403.20,0.00 402.84,-1.78 402.40,-2.40 401.78,-2.84 400.98,-3.11 400.00,-3.20">
        <request index="0" response="0" foes="0" cont="0"/>
    </junction>
    <junction id="n3" type="traffic_light" x="0.00" y="200.00" incLanes="v0_0_0" intLanes=":n3_0_0 :n3_1_0" shape="0.00,204.00 3.20,204.00 3.64,201.78 4.20,201.00 4.98,200.44 5.98,200.11 7.20,200.00 7.20,196.80 4.98,196.36 4.20,195.80 3.64,195.02 3.31,194.02 3.20,192.80 0.00,192.80">
        <request index="0" response="00" foes="00" cont="0"/>
        <request index="1" response="00" foes="00" cont="0"/>
    </junction>
    <junction id="n4" type="traffic_light" x="200.00" y="200.00" incLanes="v1_0_0 h1_0_0" intLanes=":n4_0_0 :n4_1_0 :n4_2_0 :n4_3_0" shape="200.00,204.00 203.20,204.00 203.64,201.78 204.20,201.00 204.98,200.44 205.98,200.11 207.20,200.00 207.20,196.80 204.98,196.36 204.20,195.80 203.64,195.02 203.31,194.02 203.20,192.80 200.00,192.80 199.56,195.02 199.00,195.80 198.22,196.36 197.22,196.69 196.00,196.80 196.00,200.00 198.22,200.44 199.00,201.00 199.56,201.78 199.89,202.78">
        <request index="0" response="0000" foes="0100" cont="0"/>
        <request index="1" response="0000" foes="1100" cont="0"/>
        <request index="2" response="0011" foes="0011" cont="0"/>
        <request index="3" response="0010" foes="0010" cont="0"/>
    </junction>
    <junction id="n5" type="traffic_light" x="400.00" y="200.00" incLanes="v2_0_0 h1_1_0" intLanes=":n5_0_0 :n5_1_0" shape="400.00,204.00 403.20,204.00 403.20,192.80 400.00,192.80 399.56,195.02 399.00,195.80 398.22,196.36 397.22,196.69 396.00,196.80 396.00,200.00 398.22,200.44 399.00,201.00 399.56,201.78 399.89,202.78">
        <request index="0" response="00" foes="10" cont="0"/>
        <request index="1" response="01" foes="01" cont="0"/>
    </junction>
    <junction id="n6" type="traffic_light" x="0.00" y="400.00" incLanes="v0_1_0" intLanes=":n6_0_0" shape="3.20,400.00 3.20,396.80 0.00,396.80 0.36,398.58 0.80,399.20 1.42,399.64 2.22,399.91">
        <request index="0" response="0" foes="0" cont="0"/>
    </junction>
    <junction id="n7" type="traffic_light" x="200.00" y="400.00" incLanes="v1_1_0 h2_0_0" intLanes=":n7_0_0 :n7_1_0" shape="207.20,400.00 207.20,396.80 204.98,396.36 204.20,395.80 203.64,395.02 203.31,394.02 203.20,392.80 200.00,392.80 199.56,395.02 199.00,395.80 198.22,396.36 197.22,396.69 196.00,396.80 196.00,400.00">
        <request index="0" response="00" foes="10" cont="0"/>
        <request index="1" response="01" foes="01" cont="0"/>
    </junction>
    <junction id="n8" type="dead_end" x="400.00" y="400.00" incLanes="v2_1_0 h2_1_0" intLanes="" shape="403.20,395.30 400.00,395.30 399.83,396.13 399.62,396.42 399.33,396.63 398.96,396.76 398.50,396.80 398.50,400.00 401.11,399.48 402.03,398.82 402.68,397.91 403.07,396.74"/>

    <connection from="h0_0" to="h0_1" fromLane="0" toLane="0" via=":n1_0_0" tl="n1" linkIndex="0" dir="s" state="O"/>
    <connection from="h0_0" to="v1_0" fromLane="0" toLane="0" via=":n1_1_0" tl="n1" linkIndex="1" dir="l" state="O"/>
    <connection from="h0_1" to="v2_0" fromLane="0" toLane="0" via=":n2_0_0" tl="n2" linkIndex="0" dir="l" state="O"/>
    <connection from="h1_0" to="h1_1" fromLane="0" toLane="0" via=":n4_2_0" tl="n4" linkIndex="2" dir="s" state="o"/>
    <connection from="h1_0" to="v1_1" fromLane="0" toLane="0" via=":n4_3_0" tl="n4" linkIndex="3" dir="l" state="o"/>
    <connection from="h1_1" to="v2_1" fromLane="0" toLane="0" via=":n5_1_0" tl="n5" linkIndex="1" dir="l" state="o"/>
    <connection from="h2_0" to="h2_1" fromLane="0" toLane="0" via=":n7_1_0" tl="n7" linkIndex="1" dir="s" state="o"/>
    <connection from="v0_0" to="h1_0" fromLane="0" toLane="0" via=":n3_0_0" tl="n3" linkIndex="0" dir="r" state="O"/>
    <connection from="v0_0" to="v0_1" fromLane="0" toLane="0" via=":n3_1_0" tl="n3" linkIndex="1" dir="s" state="O"/>
    <connection from="v0_1" to="h2_0" fromLane="0" toLane="0" via=":n6_0_0" tl="n6" linkIndex="0" dir="r" state="O"/>
    <connection from="v1_0" to="h1_1" fromLane="0" toLane="0" via=":n4_0_0" tl="n4" linkIndex="0" dir="r" state="O"/>
    <connection from="v1_0" to="v1_1" fromLane="0" toLane="0" via=":n4_1_0" tl="n4" linkIndex="1" dir="s" state="O"/>
    <connection from="v1_1" to="h2_1" fromLane="0" toLane="0" via=":n7_0_0" tl="n7" linkIndex="0" dir="r" state="O"/>
    <connection from="v2_0" to="v2_1" fromLane="0" toLane="0" via=":n5_0_0" tl="n5" linkIndex="0" dir="s" state="O"/>

    <connection from=":n1_0" to="h0_1" fromLane="0" toLane="0" dir="s" state="M"/>
    <connection from=":n1_1" to="v1_0" fromLane="0" toLane="0" dir="l" state="M"/>
    <connection from=":n2_0" to="v2_0" fromLane="0" toLane="0" dir="l" state="M"/>
    <connection from=":n3_0" to="h1_0" fromLane="0" toLane="0" dir="r" state="M"/>
    <connection from=":n3_1" to="v0_1" fromLane="0" toLane="0" dir="s" state="M"/>
    <connection from=":n4_0" to="h1_1" fromLane="0" toLane="0" dir="r" state="M"/>
    <connection from=":n4_1" to="v1_1" fromLane="0" toLane="0" dir="s" state="M"/>
    <connection from=":n4_2" to="h1_1" fromLane="0" toLane="0" dir="s" state="M"/>
    <connection from=":n4_3" to="v1_1" fromLane="0" toLane="0" dir="l" state="M"/>
    <connection from=":n5_0" to="v2_1" fromLane="0" toLane="0" dir="s" state="M"/>
    <connection from=":n5_1" to="v2_1" fromLane="0" toLane="0" dir="l" state="M"/>
    <connection from=":n6_0" to="h2_0" fromLane="0" toLane="0" dir="r" state="M"/>
    <connection from=":n7_0" to="h2_1" fromLane="0" toLane="0" dir="r" state="M"/>
    <connection from=":n7_1" to="h2_1" fromLane="0" toLane="0" dir="s" state="M"/>

</net>
