<?xml version="1.0" encoding="UTF-8"?>
<!-- Definição dos nós (intersecções) -->
<nodes xmlns:xsi="http://www.w3.org/2001/XMLSchema-instance" xsi:noNamespaceSchemaLocation="http://sumo.dlr.de/xsd/nodes_file.xsd">
    <node id="n0" x="0.0" y="0.0" type="traffic_light"/>
    <node id="n1" x="200.0" y="0.0" type="traffic_light"/>
    <node id="n2" x="400.0" y="0.0" type="traffic_light"/>
    <node id="n3" x="0.0" y="200.0" type="traffic_light"/>
    <node id="n4" x="200.0" y="200.0" type="traffic_light"/>
    <node id="n5" x="400.0" y="200.0" type="traffic_light"/>
    <node id="n6" x="0.0" y="400.0" type="traffic_light"/>
    <node id="n7" x="200.0" y="400.0" type="traffic_light"/>
    <node id="n8" x="400.0" y="400.0" type="traffic_light"/>
</nodes>
