<?xml version="1.0" encoding="UTF-8"?>
<!-- Definição das edges (ruas) -->
<edges xmlns:xsi="http://www.w3.org/2001/XMLSchema-instance" xsi:noNamespaceSchemaLocation="http://sumo.dlr.de/xsd/edges_file.xsd">
    <!-- Ruas horizontais -->
    <edge id="h0_0" from="n0" to="n1" numLanes="1" speed="13.89"/>
    <edge id="h0_1" from="n1" to="n2" numLanes="1" speed="13.89"/>
    <edge id="h1_0" from="n3" to="n4" numLanes="1" speed="13.89"/>
    <edge id="h1_1" from="n4" to="n5" numLanes="1" speed="13.89"/>
    <edge id="h2_0" from="n6" to="n7" numLanes="1" speed="13.89"/>
    <edge id="h2_1" from="n7" to="n8" numLanes="1" speed="13.89"/>
    
    <!-- Ruas verticais -->
    <edge id="v0_0" from="n0" to="n3" numLanes="1" speed="13.89"/>
    <edge id="v0_1" from="n3" to="n6" numLanes="1" speed="13.89"/>
    <edge id="v1_0" from="n1" to="n4" numLanes="1" speed="13.89"/>
    <edge id="v1_1" from="n4" to="n7" numLanes="1" speed="13.89"/>
    <edge id="v2_0" from="n2" to="n5" numLanes="1" speed="13.89"/>
    <edge id="v2_1" from="n5" to="n8" numLanes="1" speed="13.89"/>
</edges>
