<?xml version="1.0" encoding="UTF-8"?>
<routes xmlns:xsi="http://www.w3.org/2001/XMLSchema-instance" xsi:noNamespaceSchemaLocation="http://sumo.dlr.de/xsd/routes_file.xsd">
    
    <!-- Tipos de veículos -->
    <vType id="car" accel="2.6" decel="4.5" sigma="0.5" length="5" maxSpeed="50" color="1,1,0"/>
    <vType id="emergency" accel="3.0" decel="5.0" sigma="0.3" length="6" maxSpeed="70" color="1,0,0"/>
    
    <!-- Rotas serão adicionadas dinamicamente via TraCI -->
    <!-- Este arquivo serve como template -->
    
</routes>
