<?xml version="1.0" encoding="UTF-8"?>

<!-- generated on 2025-10-20 02:45:14 by Eclipse SUMO netconvert Version 1.24.0
<netconvertConfiguration xmlns:xsi="http://www.w3.org/2001/XMLSchema-instance" xsi:noNamespaceSchemaLocation="http://sumo.dlr.de/xsd/netconvertConfiguration.xsd">

    <input>
        <node-files value="/scenarios/grid_8x8/network.nod.xml"/>
        <edge-files value="/scenarios/grid_8x8/network.edg.xml"/>
        <type-files value="/scenarios/grid_8x8/network.typ.xml"/>
    </input>

    <output>
        <output-file value="/scenarios/grid_8x8/network.net.xml"/>
    </output>

</netconvertConfiguration>
-->

<net version="1.20" junctionCornerDetail="5" limitTurnSpeed="5.50" xmlns:xsi="http://www.w3.org/2001/XMLSchema-instance" xsi:noNamespaceSchemaLocation="http://sumo.dlr.de/xsd/net_file.xsd">

    <location netOffset="0.00,0.00" convBoundary="0.00,0.00,1100.00,900.00" origBoundary="0.00,0.00,1100.00,900.00" projParameter="!"/>

    <type id="arterial" priority="2" numLanes="2" speed="16.67"/>
    <type id="collector" priority="1" numLanes="1" speed="13.89"/>
    <type id="highway" priority="3" numLanes="2" speed="22.22"/>
    <type id="local" priority="0" numLanes="1" speed="8.33"/>

    <edge id=":n0_1_0" function="internal">
        <lane id=":n0_1_0_0" index="0" speed="15.28" length="11.77" shape="146.00,-4.80 149.50,-4.30 151.91,-3.20 154.16,-2.10 157.20,-1.60"/>
    </edge>
    <edge id=":n0_1_1" function="internal">
        <lane id=":n0_1_1_0" index="0" speed="6.51" length="9.03" shape="146.00,-1.60 148.45,-1.25 150.20,-0.20 151.25,1.55 151.60,4.00"/>
    </edge>
    <edge id=":n0_2_0" function="internal">
        <lane id=":n0_2_0_0" index="0" speed="15.28" length="11.49" shape="276.00,-1.60 279.04,-2.10 281.29,-3.20 283.70,-4.30 287.20,-4.80"/>
        <lane id=":n0_2_0_1" index="1" speed="15.28" length="11.49" shape="276.00,-1.60 287.20,-1.60"/>
    </edge>
    <edge id=":n0_2_2" function="internal">
        <lane id=":n0_2_2_0" index="0" speed="6.51" length="9.03" shape="276.00,-1.60 278.45,-1.25 280.20,-0.20 281.25,1.55 281.60,4.00"/>
    </edge>
    <edge id=":n0_3_0" function="internal">
        <lane id=":n0_3_0_0" index="0" speed="15.28" length="14.83" shape="446.00,-4.80 450.66,-4.30 454.09,-3.20 457.08,-2.10 460.40,-1.60"/>
    </edge>
    <edge id=":n0_3_1" function="internal">
        <lane id=":n0_3_1_0" index="0" speed="8.00" length="14.19" shape="446.00,-4.80 449.85,-4.25 452.60,-2.60 454.25,0.15 454.80,4.00"/>
        <lane id=":n0_3_1_1" index="1" speed="6.51" length="9.03" shape="446.00,-1.60 448.45,-1.25 450.20,-0.20 451.25,1.55 451.60,4.00"/>
    </edge>
    <edge id=":n0_4_0" function="internal">
        <lane id=":n0_4_0_0" index="0" speed="15.28" length="14.62" shape="596.00,-1.60 599.32,-2.10 602.31,-3.20 605.74,-4.30 610.40,-4.80"/>
        <lane id=":n0_4_0_1" index="1" speed="15.28" length="14.62" shape="596.00,-1.60 610.40,-1.60"/>
    </edge>
    <edge id=":n0_4_2" function="internal">
        <lane id=":n0_4_2_0" index="0" speed="7.33" length="11.73" shape="596.00,-1.60 599.85,-1.25 602.60,-0.20 604.25,1.55 604.80,4.00"/>
        <lane id=":n0_4_2_1" index="1" speed="6.51" length="9.03" shape="596.00,-1.60 598.45,-1.25 600.20,-0.20 601.25,1.55 601.60,4.00"/>
    </edge>
    <edge id=":n0_5_0" function="internal">
        <lane id=":n0_5_0_0" index="0" speed="15.28" length="11.77" shape="776.00,-4.80 779.50,-4.30 781.91,-3.20 784.16,-2.10 787.20,-1.60"/>
    </edge>
    <edge id=":n0_5_1" function="internal">
        <lane id=":n0_5_1_0" index="0" speed="6.51" length="9.03" shape="776.00,-1.60 778.45,-1.25 780.20,-0.20 781.25,1.55 781.60,4.00"/>
    </edge>
    <edge id=":n0_6_0" function="internal">
        <lane id=":n0_6_0_0" index="0" speed="15.28" length="11.49" shape="916.00,-1.60 919.04,-2.10 921.29,-3.20 923.70,-4.30 927.20,-4.80"/>
        <lane id=":n0_6_0_1" index="1" speed="15.28" length="11.49" shape="916.00,-1.60 927.20,-1.60"/>
    </edge>
    <edge id=":n0_6_2" function="internal">
        <lane id=":n0_6_2_0" index="0" speed="6.51" length="9.03" shape="916.00,-1.60 918.45,-1.25 920.20,-0.20 921.25,1.55 921.60,4.00"/>
    </edge>
    <edge id=":n0_7_0" function="internal">
        <lane id=":n0_7_0_0" index="0" speed="6.08" length="7.74" shape="1100.00,-4.80 1102.10,-4.50 1103.60,-3.60 1104.50,-2.10 1104.80,0.00"/>
        <lane id=":n0_7_0_1" index="1" speed="3.90" length="2.58" shape="1100.00,-1.60 1100.70,-1.50 1101.20,-1.20 1101.50,-0.70 1101.60,0.00"/>
    </edge>
    <edge id=":n1_0_0" function="internal">
        <lane id=":n1_0_0_0" index="0" speed="6.51" length="9.03" shape="4.80,112.80 5.15,115.25 6.20,117.00 7.95,118.05 10.40,118.40"/>
    </edge>
    <edge id=":n1_0_1" function="internal">
        <lane id=":n1_0_1_0" index="0" speed="16.67" length="11.20" shape="4.80,112.80 4.80,124.00"/>
        <lane id=":n1_0_1_1" index="1" speed="16.67" length="11.20" shape="1.60,112.80 1.60,124.00"/>
    </edge>
    <edge id=":n1_1_0" function="internal">
        <lane id=":n1_1_0_0" index="0" speed="6.51" length="9.03" shape="151.60,112.80 151.95,115.25 153.00,117.00 154.75,118.05 157.20,118.40"/>
    </edge>
    <edge id=":n1_1_1" function="internal">
        <lane id=":n1_1_1_0" index="0" speed="13.89" length="11.20" shape="151.60,112.80 151.60,124.00"/>
    </edge>
    <edge id=":n1_1_2" function="internal">
        <lane id=":n1_1_2_0" index="0" speed="11.11" length="11.20" shape="146.00,118.40 157.20,118.40"/>
    </edge>
    <edge id=":n1_1_3" function="internal">
        <lane id=":n1_1_3_0" index="0" speed="6.51" length="9.03" shape="146.00,118.40 148.45,118.75 150.20,119.80 151.25,121.55 151.60,124.00"/>
    </edge>
    <edge id=":n1_2_0" function="internal">
        <lane id=":n1_2_0_0" index="0" speed="6.51" length="9.03" shape="281.60,112.80 281.95,115.25 283.00,117.00 284.75,118.05 287.20,118.40"/>
    </edge>
    <edge id=":n1_2_1" function="internal">
        <lane id=":n1_2_1_0" index="0" speed="8.33" length="11.20" shape="281.60,112.80 281.60,124.00"/>
    </edge>
    <edge id=":n1_2_2" function="internal">
        <lane id=":n1_2_2_0" index="0" speed="11.11" length="11.20" shape="276.00,118.40 287.20,118.40"/>
    </edge>
    <edge id=":n1_2_3" function="internal">
        <lane id=":n1_2_3_0" index="0" speed="6.51" length="4.11" shape="276.00,118.40 278.45,118.75 279.85,119.59"/>
    </edge>
    <edge id=":n1_2_4" function="internal">
        <lane id=":n1_2_4_0" index="0" speed="6.51" length="4.93" shape="279.85,119.59 280.20,119.80 281.25,121.55 281.60,124.00"/>
    </edge>
    <edge id=":n1_3_0" function="internal">
        <lane id=":n1_3_0_0" index="0" speed="6.51" length="9.03" shape="454.80,112.80 455.15,115.25 456.20,117.00 457.95,118.05 460.40,118.40"/>
    </edge>
    <edge id=":n1_3_1" function="internal">
        <lane id=":n1_3_1_0" index="0" speed="22.22" length="11.20" shape="454.80,112.80 454.80,124.00"/>
        <lane id=":n1_3_1_1" index="1" speed="22.22" length="11.20" shape="451.60,112.80 451.60,124.00"/>
    </edge>
    <edge id=":n1_3_3" function="internal">
        <lane id=":n1_3_3_0" index="0" speed="11.11" length="14.40" shape="446.00,118.40 460.40,118.40"/>
    </edge>
    <edge id=":n1_3_4" function="internal">
        <lane id=":n1_3_4_0" index="0" speed="6.51" length="9.03" shape="446.00,118.40 448.45,118.75 450.20,119.80 451.25,121.55 451.60,124.00"/>
    </edge>
    <edge id=":n1_4_0" function="internal">
        <lane id=":n1_4_0_0" index="0" speed="6.51" length="9.03" shape="604.80,112.80 605.15,115.25 606.20,117.00 607.95,118.05 610.40,118.40"/>
    </edge>
    <edge id=":n1_4_1" function="internal">
        <lane id=":n1_4_1_0" index="0" speed="16.67" length="11.20" shape="604.80,112.80 604.80,124.00"/>
        <lane id=":n1_4_1_1" index="1" speed="16.67" length="11.20" shape="601.60,112.80 601.60,124.00"/>
    </edge>
    <edge id=":n1_4_3" function="internal">
        <lane id=":n1_4_3_0" index="0" speed="11.11" length="14.40" shape="596.00,118.40 610.40,118.40"/>
    </edge>
    <edge id=":n1_4_4" function="internal">
        <lane id=":n1_4_4_0" index="0" speed="6.51" length="9.03" shape="596.00,118.40 598.45,118.75 600.20,119.80 601.25,121.55 601.60,124.00"/>
    </edge>
    <edge id=":n1_5_0" function="internal">
        <lane id=":n1_5_0_0" index="0" speed="6.51" length="9.03" shape="781.60,112.80 781.95,115.25 783.00,117.00 784.75,118.05 787.20,118.40"/>
    </edge>
    <edge id=":n1_5_1" function="internal">
        <lane id=":n1_5_1_0" index="0" speed="13.89" length="11.20" shape="781.60,112.80 781.60,124.00"/>
    </edge>
    <edge id=":n1_5_2" function="internal">
        <lane id=":n1_5_2_0" index="0" speed="11.11" length="11.20" shape="776.00,118.40 787.20,118.40"/>
    </edge>
    <edge id=":n1_5_3" function="internal">
        <lane id=":n1_5_3_0" index="0" speed="6.51" length="9.03" shape="776.00,118.40 778.45,118.75 780.20,119.80 781.25,121.55 781.60,124.00"/>
    </edge>
    <edge id=":n1_6_0" function="internal">
        <lane id=":n1_6_0_0" index="0" speed="6.51" length="9.03" shape="921.60,112.80 921.95,115.25 923.00,117.00 924.75,118.05 927.20,118.40"/>
    </edge>
    <edge id=":n1_6_1" function="internal">
        <lane id=":n1_6_1_0" index="0" speed="8.33" length="11.20" shape="921.60,112.80 921.60,124.00"/>
    </edge>
    <edge id=":n1_6_2" function="internal">
        <lane id=":n1_6_2_0" index="0" speed="11.11" length="11.20" shape="916.00,118.40 927.20,118.40"/>
    </edge>
    <edge id=":n1_6_3" function="internal">
        <lane id=":n1_6_3_0" index="0" speed="6.51" length="4.11" shape="916.00,118.40 918.45,118.75 919.85,119.59"/>
    </edge>
    <edge id=":n1_6_4" function="internal">
        <lane id=":n1_6_4_0" index="0" speed="6.51" length="4.93" shape="919.85,119.59 920.20,119.80 921.25,121.55 921.60,124.00"/>
    </edge>
    <edge id=":n1_7_0" function="internal">
        <lane id=":n1_7_0_0" index="0" speed="16.67" length="11.20" shape="1104.80,112.80 1104.80,124.00"/>
        <lane id=":n1_7_0_1" index="1" speed="16.67" length="11.20" shape="1101.60,112.80 1101.60,124.00"/>
    </edge>
    <edge id=":n1_7_2" function="internal">
        <lane id=":n1_7_2_0" index="0" speed="6.51" length="9.03" shape="1096.00,118.40 1098.45,118.75 1100.20,119.80 1101.25,121.55 1101.60,124.00"/>
    </edge>
    <edge id=":n2_0_0" function="internal">
        <lane id=":n2_0_0_0" index="0" speed="6.51" length="9.03" shape="4.80,249.60 5.15,252.05 6.20,253.80 7.95,254.85 10.40,255.20"/>
        <lane id=":n2_0_0_1" index="1" speed="7.33" length="11.73" shape="4.80,249.60 5.15,253.45 6.20,256.20 7.95,257.85 10.40,258.40"/>
    </edge>
    <edge id=":n2_0_2" function="internal">
        <lane id=":n2_0_2_0" index="0" speed="16.67" length="14.40" shape="4.80,249.60 4.80,264.00"/>
        <lane id=":n2_0_2_1" index="1" speed="16.67" length="14.40" shape="1.60,249.60 1.60,264.00"/>
    </edge>
    <edge id=":n2_1_0" function="internal">
        <lane id=":n2_1_0_0" index="0" speed="6.51" length="9.03" shape="151.60,249.60 151.95,252.05 153.00,253.80 154.75,254.85 157.20,255.20"/>
    </edge>
    <edge id=":n2_1_1" function="internal">
        <lane id=":n2_1_1_0" index="0" speed="13.89" length="14.40" shape="151.60,249.60 151.60,264.00"/>
    </edge>
    <edge id=":n2_1_2" function="internal">
        <lane id=":n2_1_2_0" index="0" speed="16.67" length="11.20" shape="146.00,255.20 157.20,255.20"/>
        <lane id=":n2_1_2_1" index="1" speed="16.67" length="11.20" shape="146.00,258.40 157.20,258.40"/>
    </edge>
    <edge id=":n2_1_4" function="internal">
        <lane id=":n2_1_4_0" index="0" speed="6.51" length="9.03" shape="146.00,258.40 148.45,258.75 150.20,259.80 151.25,261.55 151.60,264.00"/>
    </edge>
    <edge id=":n2_2_0" function="internal">
        <lane id=":n2_2_0_0" index="0" speed="6.51" length="9.03" shape="281.60,249.60 281.95,252.05 283.00,253.80 284.75,254.85 287.20,255.20"/>
    </edge>
    <edge id=":n2_2_1" function="internal">
        <lane id=":n2_2_1_0" index="0" speed="8.33" length="14.40" shape="281.60,249.60 281.60,264.00"/>
    </edge>
    <edge id=":n2_2_2" function="internal">
        <lane id=":n2_2_2_0" index="0" speed="16.67" length="11.20" shape="276.00,255.20 287.20,255.20"/>
        <lane id=":n2_2_2_1" index="1" speed="16.67" length="11.20" shape="276.00,258.40 287.20,258.40"/>
    </edge>
    <edge id=":n2_2_4" function="internal">
        <lane id=":n2_2_4_0" index="0" speed="6.51" length="9.03" shape="276.00,258.40 278.45,258.75 280.20,259.80 281.25,261.55 281.60,264.00"/>
    </edge>
    <edge id=":n2_3_0" function="internal">
        <lane id=":n2_3_0_0" index="0" speed="6.51" length="9.03" shape="454.80,249.60 455.15,252.05 456.20,253.80 457.95,254.85 460.40,255.20"/>
    </edge>
    <edge id=":n2_3_1" function="internal">
        <lane id=":n2_3_1_0" index="0" speed="22.22" length="14.40" shape="454.80,249.60 454.80,264.00"/>
        <lane id=":n2_3_1_1" index="1" speed="22.22" length="14.40" shape="451.60,249.60 451.60,264.00"/>
    </edge>
    <edge id=":n2_3_3" function="internal">
        <lane id=":n2_3_3_0" index="0" speed="16.67" length="14.40" shape="446.00,255.20 460.40,255.20"/>
        <lane id=":n2_3_3_1" index="1" speed="16.67" length="14.40" shape="446.00,258.40 460.40,258.40"/>
    </edge>
    <edge id=":n2_3_5" function="internal">
        <lane id=":n2_3_5_0" index="0" speed="6.51" length="9.03" shape="446.00,258.40 448.45,258.75 450.20,259.80 451.25,261.55 451.60,264.00"/>
    </edge>
    <edge id=":n2_4_0" function="internal">
        <lane id=":n2_4_0_0" index="0" speed="6.51" length="9.03" shape="604.80,249.60 605.15,252.05 606.20,253.80 607.95,254.85 610.40,255.20"/>
    </edge>
    <edge id=":n2_4_1" function="internal">
        <lane id=":n2_4_1_0" index="0" speed="16.67" length="14.40" shape="604.80,249.60 604.80,264.00"/>
        <lane id=":n2_4_1_1" index="1" speed="16.67" length="14.40" shape="601.60,249.60 601.60,264.00"/>
    </edge>
    <edge id=":n2_4_3" function="internal">
        <lane id=":n2_4_3_0" index="0" speed="16.67" length="14.40" shape="596.00,255.20 610.40,255.20"/>
        <lane id=":n2_4_3_1" index="1" speed="16.67" length="14.40" shape="596.00,258.40 610.40,258.40"/>
    </edge>
    <edge id=":n2_4_5" function="internal">
        <lane id=":n2_4_5_0" index="0" speed="6.51" length="4.11" shape="596.00,258.40 598.45,258.75 599.85,259.59"/>
    </edge>
    <edge id=":n2_4_6" function="internal">
        <lane id=":n2_4_6_0" index="0" speed="6.51" length="4.93" shape="599.85,259.59 600.20,259.80 601.25,261.55 601.60,264.00"/>
    </edge>
    <edge id=":n2_5_0" function="internal">
        <lane id=":n2_5_0_0" index="0" speed="6.51" length="9.03" shape="781.60,249.60 781.95,252.05 783.00,253.80 784.75,254.85 787.20,255.20"/>
    </edge>
    <edge id=":n2_5_1" function="internal">
        <lane id=":n2_5_1_0" index="0" speed="13.89" length="14.40" shape="781.60,249.60 781.60,264.00"/>
    </edge>
    <edge id=":n2_5_2" function="internal">
        <lane id=":n2_5_2_0" index="0" speed="16.67" length="11.20" shape="776.00,255.20 787.20,255.20"/>
        <lane id=":n2_5_2_1" index="1" speed="16.67" length="11.20" shape="776.00,258.40 787.20,258.40"/>
    </edge>
    <edge id=":n2_5_4" function="internal">
        <lane id=":n2_5_4_0" index="0" speed="6.51" length="9.03" shape="776.00,258.40 778.45,258.75 780.20,259.80 781.25,261.55 781.60,264.00"/>
    </edge>
    <edge id=":n2_6_0" function="internal">
        <lane id=":n2_6_0_0" index="0" speed="6.51" length="9.03" shape="921.60,249.60 921.95,252.05 923.00,253.80 924.75,254.85 927.20,255.20"/>
    </edge>
    <edge id=":n2_6_1" function="internal">
        <lane id=":n2_6_1_0" index="0" speed="8.33" length="14.40" shape="921.60,249.60 921.60,264.00"/>
    </edge>
    <edge id=":n2_6_2" function="internal">
        <lane id=":n2_6_2_0" index="0" speed="16.67" length="11.20" shape="916.00,255.20 927.20,255.20"/>
        <lane id=":n2_6_2_1" index="1" speed="16.67" length="11.20" shape="916.00,258.40 927.20,258.40"/>
    </edge>
    <edge id=":n2_6_4" function="internal">
        <lane id=":n2_6_4_0" index="0" speed="6.51" length="9.03" shape="916.00,258.40 918.45,258.75 920.20,259.80 921.25,261.55 921.60,264.00"/>
    </edge>
    <edge id=":n2_7_0" function="internal">
        <lane id=":n2_7_0_0" index="0" speed="16.67" length="14.40" shape="1104.80,249.60 1104.80,264.00"/>
        <lane id=":n2_7_0_1" index="1" speed="16.67" length="14.40" shape="1101.60,249.60 1101.60,264.00"/>
    </edge>
    <edge id=":n2_7_2" function="internal">
        <lane id=":n2_7_2_0" index="0" speed="8.00" length="3.89" shape="1096.00,255.20 1099.85,255.75"/>
        <lane id=":n2_7_2_1" index="1" speed="6.51" length="4.11" shape="1096.00,258.40 1098.45,258.75 1099.85,259.59"/>
    </edge>
    <edge id=":n2_7_4" function="internal">
        <lane id=":n2_7_4_0" index="0" speed="8.00" length="10.30" shape="1099.85,255.75 1102.60,257.40 1104.25,260.15 1104.80,264.00"/>
        <lane id=":n2_7_4_1" index="0" speed="6.51" length="4.93" shape="1099.85,259.59 1100.20,259.80 1101.25,261.55 1101.60,264.00"/>
    </edge>
    <edge id=":n3_0_0" function="internal">
        <lane id=":n3_0_0_0" index="0" speed="6.51" length="9.03" shape="4.80,372.80 5.15,375.25 6.20,377.00 7.95,378.05 10.40,378.40"/>
    </edge>
    <edge id=":n3_0_1" function="internal">
        <lane id=":n3_0_1_0" index="0" speed="16.67" length="11.20" shape="4.80,372.80 4.80,384.00"/>
        <lane id=":n3_0_1_1" index="1" speed="16.67" length="11.20" shape="1.60,372.80 1.60,384.00"/>
    </edge>
    <edge id=":n3_1_0" function="internal">
        <lane id=":n3_1_0_0" index="0" speed="6.51" length="9.03" shape="151.60,372.80 151.95,375.25 153.00,377.00 154.75,378.05 157.20,378.40"/>
    </edge>
    <edge id=":n3_1_1" function="internal">
        <lane id=":n3_1_1_0" index="0" speed="13.89" length="11.20" shape="151.60,372.80 151.60,384.00"/>
    </edge>
    <edge id=":n3_1_2" function="internal">
        <lane id=":n3_1_2_0" index="0" speed="8.33" length="11.20" shape="146.00,378.40 157.20,378.40"/>
    </edge>
    <edge id=":n3_1_3" function="internal">
        <lane id=":n3_1_3_0" index="0" speed="6.51" length="9.03" shape="146.00,378.40 148.45,378.75 150.20,379.80 151.25,381.55 151.60,384.00"/>
    </edge>
    <edge id=":n3_2_0" function="internal">
        <lane id=":n3_2_0_0" index="0" speed="6.51" length="9.03" shape="281.60,372.80 281.95,375.25 283.00,377.00 284.75,378.05 287.20,378.40"/>
    </edge>
    <edge id=":n3_2_1" function="internal">
        <lane id=":n3_2_1_0" index="0" speed="8.33" length="11.20" shape="281.60,372.80 281.60,384.00"/>
    </edge>
    <edge id=":n3_2_2" function="internal">
        <lane id=":n3_2_2_0" index="0" speed="8.33" length="11.20" shape="276.00,378.40 287.20,378.40"/>
    </edge>
    <edge id=":n3_2_3" function="internal">
        <lane id=":n3_2_3_0" index="0" speed="6.51" length="4.11" shape="276.00,378.40 278.45,378.75 279.85,379.59"/>
    </edge>
    <edge id=":n3_2_4" function="internal">
        <lane id=":n3_2_4_0" index="0" speed="6.51" length="4.93" shape="279.85,379.59 280.20,379.80 281.25,381.55 281.60,384.00"/>
    </edge>
    <edge id=":n3_3_0" function="internal">
        <lane id=":n3_3_0_0" index="0" speed="6.51" length="9.03" shape="454.80,372.80 455.15,375.25 456.20,377.00 457.95,378.05 460.40,378.40"/>
    </edge>
    <edge id=":n3_3_1" function="internal">
        <lane id=":n3_3_1_0" index="0" speed="22.22" length="11.20" shape="454.80,372.80 454.80,384.00"/>
        <lane id=":n3_3_1_1" index="1" speed="22.22" length="11.20" shape="451.60,372.80 451.60,384.00"/>
    </edge>
    <edge id=":n3_3_3" function="internal">
        <lane id=":n3_3_3_0" index="0" speed="8.33" length="14.40" shape="446.00,378.40 460.40,378.40"/>
    </edge>
    <edge id=":n3_3_4" function="internal">
        <lane id=":n3_3_4_0" index="0" speed="6.51" length="9.03" shape="446.00,378.40 448.45,378.75 450.20,379.80 451.25,381.55 451.60,384.00"/>
    </edge>
    <edge id=":n3_4_0" function="internal">
        <lane id=":n3_4_0_0" index="0" speed="6.51" length="9.03" shape="604.80,372.80 605.15,375.25 606.20,377.00 607.95,378.05 610.40,378.40"/>
    </edge>
    <edge id=":n3_4_1" function="internal">
        <lane id=":n3_4_1_0" index="0" speed="16.67" length="11.20" shape="604.80,372.80 604.80,384.00"/>
        <lane id=":n3_4_1_1" index="1" speed="16.67" length="11.20" shape="601.60,372.80 601.60,384.00"/>
    </edge>
    <edge id=":n3_4_3" function="internal">
        <lane id=":n3_4_3_0" index="0" speed="8.33" length="14.40" shape="596.00,378.40 610.40,378.40"/>
    </edge>
    <edge id=":n3_4_4" function="internal">
        <lane id=":n3_4_4_0" index="0" speed="6.51" length="9.03" shape="596.00,378.40 598.45,378.75 600.20,379.80 601.25,381.55 601.60,384.00"/>
    </edge>
    <edge id=":n3_5_0" function="internal">
        <lane id=":n3_5_0_0" index="0" speed="6.51" length="9.03" shape="781.60,372.80 781.95,375.25 783.00,377.00 784.75,378.05 787.20,378.40"/>
    </edge>
    <edge id=":n3_5_1" function="internal">
        <lane id=":n3_5_1_0" index="0" speed="13.89" length="11.20" shape="781.60,372.80 781.60,384.00"/>
    </edge>
    <edge id=":n3_5_2" function="internal">
        <lane id=":n3_5_2_0" index="0" speed="8.33" length="11.20" shape="776.00,378.40 787.20,378.40"/>
    </edge>
    <edge id=":n3_5_3" function="internal">
        <lane id=":n3_5_3_0" index="0" speed="6.51" length="9.03" shape="776.00,378.40 778.45,378.75 780.20,379.80 781.25,381.55 781.60,384.00"/>
    </edge>
    <edge id=":n3_6_0" function="internal">
        <lane id=":n3_6_0_0" index="0" speed="6.51" length="9.03" shape="921.60,372.80 921.95,375.25 923.00,377.00 924.75,378.05 927.20,378.40"/>
    </edge>
    <edge id=":n3_6_1" function="internal">
        <lane id=":n3_6_1_0" index="0" speed="8.33" length="11.20" shape="921.60,372.80 921.60,384.00"/>
    </edge>
    <edge id=":n3_6_2" function="internal">
        <lane id=":n3_6_2_0" index="0" speed="8.33" length="11.20" shape="916.00,378.40 927.20,378.40"/>
    </edge>
    <edge id=":n3_6_3" function="internal">
        <lane id=":n3_6_3_0" index="0" speed="6.51" length="4.11" shape="916.00,378.40 918.45,378.75 919.85,379.59"/>
    </edge>
    <edge id=":n3_6_4" function="internal">
        <lane id=":n3_6_4_0" index="0" speed="6.51" length="4.93" shape="919.85,379.59 920.20,379.80 921.25,381.55 921.60,384.00"/>
    </edge>
    <edge id=":n3_7_0" function="internal">
        <lane id=":n3_7_0_0" index="0" speed="16.67" length="11.20" shape="1104.80,372.80 1104.80,384.00"/>
        <lane id=":n3_7_0_1" index="1" speed="16.67" length="11.20" shape="1101.60,372.80 1101.60,384.00"/>
    </edge>
    <edge id=":n3_7_2" function="internal">
        <lane id=":n3_7_2_0" index="0" speed="6.51" length="9.03" shape="1096.00,378.40 1098.45,378.75 1100.20,379.80 1101.25,381.55 1101.60,384.00"/>
    </edge>
    <edge id=":n4_0_0" function="internal">
        <lane id=":n4_0_0_0" index="0" speed="6.51" length="9.03" shape="4.80,509.60 5.15,512.05 6.20,513.80 7.95,514.85 10.40,515.20"/>
        <lane id=":n4_0_0_1" index="1" speed="8.00" length="14.19" shape="1.60,509.60 2.15,513.45 3.80,516.20 6.55,517.85 10.40,518.40"/>
    </edge>
    <edge id=":n4_0_2" function="internal">
        <lane id=":n4_0_2_0" index="0" speed="16.67" length="14.63" shape="1.60,509.60 2.10,513.92 3.20,516.80 4.30,519.68 4.80,524.00"/>
        <lane id=":n4_0_2_1" index="1" speed="16.67" length="14.63" shape="1.60,509.60 1.60,524.00"/>
    </edge>
    <edge id=":n4_1_0" function="internal">
        <lane id=":n4_1_0_0" index="0" speed="6.51" length="9.03" shape="151.60,509.60 151.95,512.05 153.00,513.80 154.75,514.85 157.20,515.20"/>
    </edge>
    <edge id=":n4_1_1" function="internal">
        <lane id=":n4_1_1_0" index="0" speed="13.89" length="14.40" shape="151.60,509.60 151.60,524.00"/>
    </edge>
    <edge id=":n4_1_2" function="internal">
        <lane id=":n4_1_2_0" index="0" speed="22.22" length="11.20" shape="146.00,515.20 157.20,515.20"/>
        <lane id=":n4_1_2_1" index="1" speed="22.22" length="11.20" shape="146.00,518.40 157.20,518.40"/>
    </edge>
    <edge id=":n4_1_4" function="internal">
        <lane id=":n4_1_4_0" index="0" speed="6.51" length="9.03" shape="146.00,518.40 148.45,518.75 150.20,519.80 151.25,521.55 151.60,524.00"/>
    </edge>
    <edge id=":n4_2_0" function="internal">
        <lane id=":n4_2_0_0" index="0" speed="6.51" length="9.03" shape="281.60,509.60 281.95,512.05 283.00,513.80 284.75,514.85 287.20,515.20"/>
    </edge>
    <edge id=":n4_2_1" function="internal">
        <lane id=":n4_2_1_0" index="0" speed="8.33" length="14.40" shape="281.60,509.60 281.60,524.00"/>
    </edge>
    <edge id=":n4_2_2" function="internal">
        <lane id=":n4_2_2_0" index="0" speed="22.22" length="11.20" shape="276.00,515.20 287.20,515.20"/>
        <lane id=":n4_2_2_1" index="1" speed="22.22" length="11.20" shape="276.00,518.40 287.20,518.40"/>
    </edge>
    <edge id=":n4_2_4" function="internal">
        <lane id=":n4_2_4_0" index="0" speed="6.51" length="9.03" shape="276.00,518.40 278.45,518.75 280.20,519.80 281.25,521.55 281.60,524.00"/>
    </edge>
    <edge id=":n4_3_0" function="internal">
        <lane id=":n4_3_0_0" index="0" speed="6.51" length="9.03" shape="454.80,509.60 455.15,512.05 456.20,513.80 457.95,514.85 460.40,515.20"/>
    </edge>
    <edge id=":n4_3_1" function="internal">
        <lane id=":n4_3_1_0" index="0" speed="22.22" length="14.40" shape="454.80,509.60 454.80,524.00"/>
        <lane id=":n4_3_1_1" index="1" speed="22.22" length="14.40" shape="451.60,509.60 451.60,524.00"/>
    </edge>
    <edge id=":n4_3_3" function="internal">
        <lane id=":n4_3_3_0" index="0" speed="22.22" length="14.40" shape="446.00,515.20 460.40,515.20"/>
        <lane id=":n4_3_3_1" index="1" speed="22.22" length="14.40" shape="446.00,518.40 460.40,518.40"/>
    </edge>
    <edge id=":n4_3_5" function="internal">
        <lane id=":n4_3_5_0" index="0" speed="6.51" length="9.03" shape="446.00,518.40 448.45,518.75 450.20,519.80 451.25,521.55 451.60,524.00"/>
    </edge>
    <edge id=":n4_4_0" function="internal">
        <lane id=":n4_4_0_0" index="0" speed="6.51" length="9.03" shape="604.80,509.60 605.15,512.05 606.20,513.80 607.95,514.85 610.40,515.20"/>
        <lane id=":n4_4_0_1" index="1" speed="8.00" length="14.19" shape="601.60,509.60 602.15,513.45 603.80,516.20 606.55,517.85 610.40,518.40"/>
    </edge>
    <edge id=":n4_4_2" function="internal">
        <lane id=":n4_4_2_0" index="0" speed="16.67" length="14.63" shape="601.60,509.60 602.10,513.92 603.20,516.80 604.30,519.68 604.80,524.00"/>
        <lane id=":n4_4_2_1" index="1" speed="16.67" length="14.63" shape="601.60,509.60 601.60,524.00"/>
    </edge>
    <edge id=":n4_4_4" function="internal">
        <lane id=":n4_4_4_0" index="0" speed="22.22" length="14.40" shape="596.00,515.20 610.40,515.20"/>
        <lane id=":n4_4_4_1" index="1" speed="22.22" length="14.40" shape="596.00,518.40 610.40,518.40"/>
    </edge>
    <edge id=":n4_4_6" function="internal">
        <lane id=":n4_4_6_0" index="0" speed="6.51" length="9.03" shape="596.00,518.40 598.45,518.75 600.20,519.80 601.25,521.55 601.60,524.00"/>
    </edge>
    <edge id=":n4_5_0" function="internal">
        <lane id=":n4_5_0_0" index="0" speed="6.51" length="9.03" shape="781.60,509.60 781.95,512.05 783.00,513.80 784.75,514.85 787.20,515.20"/>
    </edge>
    <edge id=":n4_5_1" function="internal">
        <lane id=":n4_5_1_0" index="0" speed="13.89" length="14.40" shape="781.60,509.60 781.60,524.00"/>
    </edge>
    <edge id=":n4_5_2" function="internal">
        <lane id=":n4_5_2_0" index="0" speed="22.22" length="11.20" shape="776.00,515.20 787.20,515.20"/>
        <lane id=":n4_5_2_1" index="1" speed="22.22" length="11.20" shape="776.00,518.40 787.20,518.40"/>
    </edge>
    <edge id=":n4_5_4" function="internal">
        <lane id=":n4_5_4_0" index="0" speed="6.51" length="9.03" shape="776.00,518.40 778.45,518.75 780.20,519.80 781.25,521.55 781.60,524.00"/>
    </edge>
    <edge id=":n4_6_0" function="internal">
        <lane id=":n4_6_0_0" index="0" speed="6.51" length="9.03" shape="921.60,509.60 921.95,512.05 923.00,513.80 924.75,514.85 927.20,515.20"/>
    </edge>
    <edge id=":n4_6_1" function="internal">
        <lane id=":n4_6_1_0" index="0" speed="8.33" length="14.40" shape="921.60,509.60 921.60,524.00"/>
    </edge>
    <edge id=":n4_6_2" function="internal">
        <lane id=":n4_6_2_0" index="0" speed="22.22" length="11.20" shape="916.00,515.20 927.20,515.20"/>
        <lane id=":n4_6_2_1" index="1" speed="22.22" length="11.20" shape="916.00,518.40 927.20,518.40"/>
    </edge>
    <edge id=":n4_6_4" function="internal">
        <lane id=":n4_6_4_0" index="0" speed="6.51" length="9.03" shape="916.00,518.40 918.45,518.75 920.20,519.80 921.25,521.55 921.60,524.00"/>
    </edge>
    <edge id=":n4_7_0" function="internal">
        <lane id=":n4_7_0_0" index="0" speed="16.67" length="14.40" shape="1104.80,509.60 1104.80,524.00"/>
        <lane id=":n4_7_0_1" index="1" speed="16.67" length="14.40" shape="1101.60,509.60 1101.60,524.00"/>
    </edge>
    <edge id=":n4_7_2" function="internal">
        <lane id=":n4_7_2_0" index="0" speed="8.00" length="14.19" shape="1096.00,515.20 1099.85,515.75 1102.60,517.40 1104.25,520.15 1104.80,524.00"/>
        <lane id=":n4_7_2_1" index="1" speed="6.51" length="9.03" shape="1096.00,518.40 1098.45,518.75 1100.20,519.80 1101.25,521.55 1101.60,524.00"/>
    </edge>
    <edge id=":n5_0_0" function="internal">
        <lane id=":n5_0_0_0" index="0" speed="6.51" length="9.03" shape="4.80,632.80 5.15,635.25 6.20,637.00 7.95,638.05 10.40,638.40"/>
    </edge>
    <edge id=":n5_0_1" function="internal">