<?xml version="1.0" encoding="UTF-8"?>
<configuration xmlns:xsi="http://www.w3.org/2001/XMLSchema-instance" xsi:noNamespaceSchemaLocation="http://sumo.dlr.de/xsd/sumoConfiguration.xsd">
    
    <input>
        <net-file value="network.net.xml"/>
        <route-files value="routes.rou.xml"/>
    </input>
    
    <time>
        <begin value="0"/>
        <end value="2000"/>
        <step-length value="0.1"/>
    </time>
    
    <processing>
        <time-to-teleport value="-1"/>
        <routing-algorithm value="dijkstra"/>
    </processing>
    
    <routing>
        <device.rerouting.probability value="1"/>
        <device.rerouting.period value="30"/>
        <device.rerouting.adaptation-interval value="10"/>
    </routing>
    
    <remote-port value="8813"/>
    
    <report>
        <verbose value="true"/>
        <duration-log.statistics value="true"/>
        <no-step-log value="false"/>
    </report>
    
    <gui_only>
        <gui-settings-file value="gui-settings.xml"/>
        <start value="true"/>
        <quit-on-end value="false"/>
    </gui_only>
    
</configuration>
